case_jilin.m
function mpc = jilin																									
%JILIN																									
																									
%% MATPOWER Case Format : Version 2																									
mpc.version = '2';																									
																									
%%-----  Power Flow Data  -----%%																									
%% system MVA base																									
mpc.baseMVA = 100;																									
																									
%% bus data																									
%	bus_i	type	Pd	Qd	Gs	Bs	area	Vm	Va	baseKV	zone	Vmax	Vmin												
mpc.bus = [																									
	1	3 85.623016	11.210842	0	0	6	0	0	230	1	1.2	0.8;	%	吉林.明城/220kV.220kV南母线											
	2	1	0	0	0	0	6	0	0	230	1	1.2	0.8;	%	21862										
	3	1	80.306335	17.389191	0	0	6	0	0	230	1	1.2	0.8;	%	吉林.立业/220kV.220kV西母线										
	4	2	0.26	2.151	0	0	6	0	0	230	1	1.2	0.8;	%	吉林.镇赉风场/220kV.220kV母线										
	5	2	0	0	0	0	6	0	0	230	1	1.2	0.8;	%	吉林.黑鱼泡风场/220kV.220KV主母线										
	6	1	-24.04443116	-2.238775	0	0	6	0	0	230	1	1.2	0.8;	%	吉林.长山厂/220kV.220kV南母线										
	7	1	0	0	0	0	6	0	0	15.75	1	1.2	0.8;	%	25201										
	8	2	8.44797	1.700152	0	0	6	0	0	15.75	1	1.2	0.8;	%	吉林.长山厂/15.75kV.#9发电机										
	9	1	-4.17006	8.339011	0	0	6	0	0	525	1	1.2	0.8;	%	吉林.九台厂/500kV.500kVII母线										
	10	2	22.038012	9.398191	0	0	6	0	0	20	1	1.2	0.8;	%	吉林.九台厂/20kV.#1发电机										
	11	2	22.157318	5.2078	0	0	6	0	0	20	1	1.2	0.8;	%	吉林.九台厂/20kV.#2发电机										
	12	1	0	0	0	0	6	0	0	230	1	1.2	0.8;	%	25271										
	13	1	0	0	0	0	6	0	0	230	1	1.2	0.8;	%	25272										
	14	1	0	0	0	0	6	0	0	230	1	1.2	0.8;	%	25274										
	15	1	0	0	0	0	6	0	0	230	1	1.2	0.8;	%	25275										
	16	1	0	0	0	0	6	0	0	230	1	1.2	0.8;	%	25276										
	17	1	81.068291	0.066033	0	0	6	0	0	230	1	1.2	0.8;	%	吉林.金珠/220kV.220kV_东母线										
	18	2	0	0	0	0	6	0	0	230	1	1.2	0.8;	%	吉林.鑫丰风场/220kV.220kV主母线										
	19	1	964.530482	0	0	-1.2	6	0	0	525	1	1.2	0.8;	%	吉林.东丰/500kV.500kVIV母线										
	20	1	0	0	0	0	6	0	0	230	1	1.2	0.8;	%	吉林.东丰/220kV.220kVIV母线										
	21	1	0	0	0	-1.8	6	0	0	66	1	1.2	0.8;	%	吉林.东丰/66kV.66kVIII母线										
	22	1	0	0	0	-0.6	6	0	0	66	1	1.2	0.8;	%	吉林.东丰/66kV.66kVI母线										
	23	1	0	0	0	-1.2	6	0	0	66	1	1.2	0.8;	%	吉林.东丰/66kV.66kVII母线										
	24	1	0	0	0	0	6	0	0	1	1	1.2	0.8;	%	吉林.东丰_mid_1										
	25	1	0	0	0	0	6	0	0	1	1	1.2	0.8;	%	吉林.东丰_mid_2										
	26	1	0	0	0	0	6	0	0	1	1	1.2	0.8;	%	吉林.东丰_mid_3										
	27	1	8.774173005	0	0	0	6	0	0	230	1	1.2	0.8;	%	吉林.梨树/220kV.220kVIV母线										
	28	1	698.4483692	0	0	-4.23	6	0	0	525	1	1.2	0.8;	%	吉林.梨树/500kV.500kVII母线										
	29	1	0	0	0	0	6	0	0	66	1	1.2	0.8;	%	吉林.梨树/66kV.66kVII母线										
	30	1	0	0	0	0	6	0	0	1	1	1.2	0.8;	%	吉林.梨树_mid_1										
	31	1	0.757879	4.756016	0	0	6	0	0	230	1	1.2	0.8;	%	吉林.二道江厂/220kV.220KV北母线										
	32	1	0	0	0	0	6	0	0	1	1	1.2	0.8;	%	吉林.二道江厂_mid_1										
	33	1	0	0	0	0	6	0	0	66	1	1.2	0.8;	%	吉林.二道江厂/66kV.#7主变中压侧等值负荷										
	34	2	0	0	0	0	6	0	0	10.5	1	1.2	0.8;	%	吉林.二道江厂/10.5kV.#7发电机										
	35	2	0	0	0	0	6	0	0	10.5	1	1.2	0.8;	%	吉林.二道江厂/10.5kV.#8发电机										
	36	2	8.344938	1.111903	0	0	6	0	0	15.75	1	1.2	0.8;	%	吉林.二道江厂/15.75kV.#1发电机										
	37	2	7.293596	0.778039	0	0	6	0	0	15.75	1	1.2	0.8;	%	吉林.二道江厂/15.75kV.#2发电机										
	38	1	2.389336	3.645609	0	0	6	0	0	230	1	1.2	0.8;	%	吉林.珲春厂/220kV.220kV旁母线										
	39	1	0	0	0	0	6	0	0	1	1	1.2	0.8;	%	吉林.珲春厂_mid_1										
	40	1	0	0	0	0	6	0	0	1	1	1.2	0.8;	%	吉林.珲春厂_mid_2										
	41	1	8.3883	2.864676	0	0	6	0	0	66	1	1.2	0.8;	%	吉林.珲春厂/66kV.#2主变厂用负荷										
	42	1	8.388412	2.863521	0	0	6	0	0	66	1	1.2	0.8;	%	吉林.珲春厂/66kV.#1主变厂用负荷										
	43	1	0	0	0	0	6	0	0	10.5	1	1.2	0.8;	%	25202										
	44	1	0	0	0	0	6	0	0	10.5	1	1.2	0.8;	%	25203										
	45	2	11.708661	1.446778	0	0	6	0	0	25	1	1.2	0.8;	%	吉林.珲春厂/24kV.#3发电机										
	46	2	11.919333	1.536946	0	0	6	0	0	25	1	1.2	0.8;	%	吉林.珲春厂/24kV.#4发电机										
	47	1	0	0	0	0	6	0	0	230	1	1.2	0.8;	%	吉林.吉林热电厂/220kV.220kV旁母线										
	48	2	6.558706	2.191607	0	0	6	0	0	13.8	1	1.2	0.8;	%	吉林.吉林热电厂/13.8kV.#8发电机										
	49	2	0	0	0	0	6	0	0	13.8	1	1.2	0.8;	%	吉林.吉林热电厂/13.8kV.#9发电机										
	50	2	0	0	0	0	6	0	0	15.75	1	1.2	0.8;	%	吉林.吉林热电厂/15.75kV.#10发电机										
	51	2	9.328322	2.612731	0	0	6	0	0	15.75	1	1.2	0.8;	%	吉林.吉林热电厂/15.75kV.#11发电机										
	52	1	0	0	0	0	6	0	0	230	1	1.2	0.8;	%	吉林.浑江厂/220kV.220kV南母线										
	53	1	7.007517	4.604985	0	0	6	0	0	66	1	1.2	0.8;	%	吉林.浑江厂/66kV.66kV下母线										
	54	1	0	0	0	0	6	0	0	1	1	1.2	0.8;	%	吉林.浑江厂_mid_1										
	55	1	0	0	0	0	6	0	0	1	1	1.2	0.8;	%	吉林.浑江厂_mid_2										
	56	1	0	0	0	0	6	0	0	10.5	1	1.2	0.8;	%	25199										
	57	1	0	0	0	0	6	0	0	10.5	1	1.2	0.8;	%	25200										
	58	2	8.65232	0.940397	0	0	6	0	0	15.75	1	1.2	0.8;	%	吉林.浑江厂/15.75kV.#5发电机										
	59	2	0	0	0	0	6	0	0	15.75	1	1.2	0.8;	%	吉林.浑江厂/15.75kV.#6发电机										
	60	1	3.197384	0.93285	0	0	6	0	0	230	1	1.2	0.8;	%	吉林.双辽厂/220kV.220kVII母线										
	61	1	0	0	0	0	6	0	0	525	1	1.2	0.8;	%	吉林.双辽厂/500kV.500kVI母线										
	62	2	10.937017	12.889963	0	0	6	0	0	20	1	1.2	0.8;	%	吉林.双辽厂/20kV.#3发电机										
	63	2	15.273577	2.530304	0	0	6	0	0	20	1	1.2	0.8;	%	吉林.双辽厂/20kV.#1发电机										
	64	2	0	0	0	0	6	0	0	20	1	1.2	0.8;	%	吉林.双辽厂/20kV.#2发电机										
	65	2	0	0	0	0	6	0	0	20	1	1.2	0.8;	%	吉林.双辽厂/20kV.#4发电机										
	66	1	1.934099	1.634911	0	0	6	0	0	230	1	1.2	0.8;	%	吉林.长春二热厂/220kV.220KVII母线										
	67	1	1.904523	2.601598	0	0	6	0	0	230	1	1.2	0.8;	%	吉林.长春二热厂/220kV.220KVIV母线										
	68	2	0	0	0	0	6	0	0	15.75	1	1.2	0.8;	%	吉林.长春二热厂/15.75kV.#6发电机										
	69	2	8.63798	1.987788	0	0	6	0	0	15.75	1	1.2	0.8;	%	吉林.长春二热厂/15.75kV.#5发电机										
	70	2	0	0	0	0	6	0	0	15.75	1	1.2	0.8;	%	吉林.长春二热厂/15.75kV.#1发电机										
	71	2	7.21267	4.863002	0	0	6	0	0	15.75	1	1.2	0.8;	%	吉林.长春二热厂/15.75kV.#2发电机										
	72	2	7.848877	3.65289	0	0	6	0	0	15.75	1	1.2	0.8;	%	吉林.长春二热厂/15.75kV.#3发电机										
	73	2	8.568773	2.030319	0	0	6	0	0	15.75	1	1.2	0.8;	%	吉林.长春二热厂/15.75kV.#4发电机										
	74	1	0	0	0	0	6	0	0	66	1	1.2	0.8;	%	吉林.四平热电厂/66kV.66kV北母线										
	75	1	0.433636	3.83043	0	0	6	0	0	230	1	1.2	0.8;	%	吉林.四平热电厂/220kV.220kVII母线										
	76	1	0	0	0	0	6	0	0	230	1	1.2	0.8;	%	吉林.四平热电厂/220kV.220kV虚拟母线										
	77	1	0	0	0	0	6	0	0	1	1	1.2	0.8;	%	吉林.四平热电厂_mid_1										
	78	2	5.29779	1.91389	0	0	6	0	0	10.5	1	1.2	0.8;	%	吉林.四平热电厂/10.5kV.#3发电机										
	79	2	0	0	0	0	6	0	0	10.5	1	1.2	0.8;	%	吉林.四平热电厂/10.5kV.#2发电机										
	80	2	0	0	0	0	6	0	0	10.5	1	1.2	0.8;	%	吉林.四平热电厂/10.5kV.#1发电机										
	81	2	11.621614	1.760071	0	0	6	0	0	20	1	1.2	0.8;	%	吉林.四平热电厂/20kV.#4发电机										
	82	1	1.205733	2.2344	0	0	6	0	0	230	1	1.2	0.8;	%	吉林.白山水厂/220kV.220kVII母西线										
	83	1	0	0	0	0	6	0	0	230	1	1.2	0.8;	%	21797										
	84	1	0	0	0	0	6	0	0	230	1	1.2	0.8;	%	吉林.白山水厂/220kV.启备变2-高等值负荷										
	85	1	0	0	0	0	6	0	0	230	1	1.2	0.8;	%	21327										
	86	2	0	0	0	0	6	0	0	18	1	1.2	0.8;	%	吉林.白山水厂/18kV.#6机抽蓄										
	87	2	0	0	0	0	6	0	0	18	1	1.2	0.8;	%	吉林.白山水厂/18kV.#7机抽蓄										
	88	2	0	0	0	0	6	0	0	18	1	1.2	0.8;	%	吉林.白山水厂/18kV.#1发电机										
	89	2	0	0	0	0	6	0	0	18	1	1.2	0.8;	%	吉林.白山水厂/18kV.#2发电机										
	90	2	0	0	0	0	6	0	0	18	1	1.2	0.8;	%	吉林.白山水厂/18kV.#3发电机										
	91	2	0	0	0	0	6	0	0	18	1	1.2	0.8;	%	吉林.白山水厂/18kV.#4发电机										
	92	2	0	0	0	0	6	0	0	18	1	1.2	0.8;	%	吉林.白山水厂/18kV.#5发电机										
	93	1	0	0	0	0	6	0	0	230	1	1.2	0.8;	%	吉林.通化/220kV.220kV_IV母线										
	94	1	0	0	0	-1.2	6	0	0	525	1	1.2	0.8;	%	吉林.通化/500kV.500kV_II母线										
	95	1	0	0	0	-0.6	6	0	0	66	1	1.2	0.8;	%	吉林.通化/66kV.#2主变星角母线										
	96	1	0	0	0	-0.6	6	0	0	66	1	1.2	0.8;	%	吉林.通化/66kV.66kV_I母线										
	97	1	0	0	0	0	6	0	0	1	1	1.2	0.8;	%	吉林.通化_mid_1										
	98	1	0	0	0	0	6	0	0	1	1	1.2	0.8;	%	吉林.通化_mid_2										
	99	1	30.08849	11.960938	0	0	6	0	0	230	1	1.2	0.8;	%	吉林.和龙/220kV.220kV西母线										
	100	1	4.290843	7.438225	0	0	6	0	0	230	1	1.2	0.8;	%	吉林.白山热电厂/220kV.220kV北母线										
	101	2	0	0	0	0	6	0	0	10.5	1	1.2	0.8;	%	吉林.白山热电厂/10.5kV.#2发电机										
	102	2	11.569562	1.268235	0	0	6	0	0	10.5	1	1.2	0.8;	%	吉林.白山热电厂/10.5kV.#1发电机										
	103	1	70.152267	31.742207	0	0	6	0	0	230	1	1.2	0.8;	%	吉林.白云220kV主母频率/220kV.220kV主母线										
	104	1	125.886063	13.942535	0	0	6	0	0	230	1	1.2	0.8;	%	吉林.三家子/220kV.220kV东母线										
	105	1	0.544167	3.808761	0	0	6	0	0	230	1	1.2	0.8;	%	吉林.长春三热厂/220kV.220kVII母线										
	106	2	13.075146	5.243688	0	0	6	0	0	15.75	1	1.2	0.8;	%	吉林.长春三热厂/15.75kV.#1发电机										
	107	2	0	0	0	0	6	0	0	15.75	1	1.2	0.8;	%	吉林.长春三热厂/15.75kV.#2发电机										
	108	2	0	0	0	0	6	0	0	230	1	1.2	0.8;	%	吉林.乾安风场/220kV.220KV_主母线										
	109	1	35.983688	11.132674	0	0	6	0	0	230	1	1.2	0.8;	%	吉林.永清/220kV.220kV_东母线										
	110	1	56.139629	14.279917	0	0	6	0	0	230	1	1.2	0.8;	%	吉林.靖边/220kV.220kV_主母线										
	111	1	83.126083	27.350389	0	0	6	0	0	230	1	1.2	0.8;	%	吉林.东郊/220kV.220kV南母线										
	112	1	106.672493	32.807194	0	0	6	0	0	230	1	1.2	0.8;	%	吉林.东郊/220kV.220kV北母线										
	113	1	39.146267	13.490669	0	0	6	0	0	230	1	1.2	0.8;	%	吉林.三岔子/220kV.220kV南母线										
	114	1	35.948734	20.42786	0	0	6	0	0	230	1	1.2	0.8;	%	吉林.松江河/220kV.220kV南母线										
	115	1	0	0	0	0	6	0	0	230	1	1.2	0.8;	%	吉林.小山电站厂/220kV.220kV主母线										
	116	2	0	0	0	0	6	0	0	13.8	1	1.2	0.8;	%	吉林.小山电站厂/13.8kV.#1发电机										
	117	2	0	0	0	0	6	0	0	13.8	1	1.2	0.8;	%	吉林.小山电站厂/13.8kV.#2发电机										
	118	1	11.031673	-3.922541	0	0	6	0	0	230	1	1.2	0.8;	%	吉林.临江/220kV.220kV主母线										
	119	1	30.256626	7.864181	0	0	6	0	0	230	1	1.2	0.8;	%	吉林.白山/220kV.220kV北母线										
	120	1	9.446998	0.600808	0	0	6	0	0	230	1	1.2	0.8;	%	吉林.靖宇/220kV.220kV主母线										
	121	1	75.725418	21.615992	0	0	6	0	0	230	1	1.2	0.8;	%	吉林.水洞/220kV.220kV东母线										
	122	1	102.710175	37.82505	0	0	6	0	0	230	1	1.2	0.8;	%	吉林.桃源/220kV.220kV西母线										
	123	1	-1.62776	0.085578	0	0	6	0	0	230	1	1.2	0.8;	%	吉林.梅河/220kV.220kV南母线										
	124	1	19.041994	5.9195	0	0	6	0	0	230	1	1.2	0.8;	%	吉林.郑家/220kV.220kV西母线										
	125	1	0	0	0	0	6	0	0	230	1	1.2	0.8;	%	吉林.丰满水厂/220kV.220kV东段下母线										
	126	2	9.137339	2.649884	0	0	6	0	0	13.8	1	1.2	0.8;	%	吉林.丰满水厂/13.8kV.#12发电机										
	127	2	9.278101	2.73813	0	0	6	0	0	13.8	1	1.2	0.8;	%	吉林.丰满水厂/13.8kV.#11发电机										
	128	2	4.441422	1.803859	0	0	6	0	0	13.8	1	1.2	0.8;	%	吉林.丰满水厂/13.8kV.#1发电机										
	129	2	0	0	0	0	6	0	0	13.8	1	1.2	0.8;	%	吉林.丰满水厂/13.8kV.#2发电机										
	130	2	0	0	0	0	6	0	0	13.8	1	1.2	0.8;	%	吉林.丰满水厂/13.8kV.#3发电机										
	131	2	4.932929	1.838974	0	0	6	0	0	13.8	1	1.2	0.8;	%	吉林.丰满水厂/13.8kV.#4发电机										
	132	2	0.239236	2.170532	0	0	6	0	0	13.8	1	1.2	0.8;	%	吉林.丰满水厂/13.8kV.#5发电机										
	133	2	0	0	0	0	6	0	0	13.8	1	1.2	0.8;	%	吉林.丰满水厂/13.8kV.#6发电机										
	134	2	0	0	0	0	6	0	0	13.8	1	1.2	0.8;	%	吉林.丰满水厂/13.8kV.#7发电机										
	135	2	0	0	0	0	6	0	0	13.8	1	1.2	0.8;	%	吉林.丰满水厂/13.8kV.#8发电机										
	136	2	0	0	0	0	6	0	0	13.8	1	1.2	0.8;	%	吉林.丰满水厂/13.8kV.#9发电机										
	137	2	4.864012	1.977177	0	0	6	0	0	13.8	1	1.2	0.8;	%	吉林.丰满水厂/13.8kV.#10发电机										
	138	1	66.42482	15.204506	0	0	6	0	0	230	1	1.2	0.8;	%	吉林.城西/220kV.220kV西母线										
	139	1	91.083702	1.020673	0	0	6	0	0	230	1	1.2	0.8;	%	吉林.哈达湾/220kV.220kV南母线										
	140	1	94.731339	51.1366	0	0	6	0	0	230	1	1.2	0.8;	%	吉林.铁东/220kV.220kVI母线										
	141	1	37.13258	-0.780806	0	0	6	0	0	230	1	1.2	0.8;	%	吉林.舒兰/220kV.220kV主母线										
	142	1	-455.1959117	0	0	-1.2	6	0	0	525	1	1.2	0.8;	%	吉林.包家/500kV.500kVII母线										
	143	1	0	0	0	-1.2	6	0	0	66	1	1.2	0.8;	%	吉林.包家/66kV.66kV母线										
	144	1	0	0	0	0	6	0	0	230	1	1.2	0.8;	%	吉林.包家/220kV.220kVII母线										
	145	1	0	0	0	0	6	0	0	1	1	1.2	0.8;	%	吉林.包家_mid_1										
	146	1	57.558315	21.431767	0	0	6	0	0	230	1	1.2	0.8;	%	吉林.城南/220kV.220kV西母线										
	147	1	124.805809	13.904296	0	0	6	0	0	230	1	1.2	0.8;	%	吉林.新立/220kV.220kV西母线										
	148	1	-0.059819	1.528601	0	0	6	0	0	230	1	1.2	0.8;	%	吉林.松花江厂/220kV.220kV北母线										
	149	2	17.976368	11.223204	0	0	6	0	0	10.5	1	1.2	0.8;	%	吉林.松花江厂/10.5kV.#1发电机										
	150	2	13.153306	7.292892	0	0	6	0	0	10.5	1	1.2	0.8;	%	吉林.松花江厂/10.5kV.#2发电机										
	151	2	0	0	0	0	6	0	0	20	1	1.2	0.8;	%	吉林.松花江厂/20kV.#4机										
	152	1	82.9245	27.31168	0	0	6	0	0	230	1	1.2	0.8;	%	吉林.磐石/220kV.220kV东母线										
	153	1	47.370972	1.891958	0	0	6	0	0	230	1	1.2	0.8;	%	吉林.桦甸/220kV.220kV西母线										
	154	1	22.637697	6.716579	0	0	6	0	0	230	1	1.2	0.8;	%	吉林.化肥/220kV.220kV南母线										
	155	1	26.118547	10.025036	0	0	6	0	0	230	1	1.2	0.8;	%	吉林.化肥/220kV.220kV北母线										
	156	1	33.00914	1.697271	0	0	6	0	0	230	1	1.2	0.8;	%	吉林.蛟河/220kV.220kV主母线										
	157	1	12.313473	6.049905	0	0	6	0	0	230	1	1.2	0.8;	%	吉林.敦化/220kV.220kV西母线										
	158	1	81.594887	13.213518	0	0	6	0	0	230	1	1.2	0.8;	%	吉林.长春/220kV.220kV西母线										
	159	1	55.340385	7.880216	0	0	6	0	0	230	1	1.2	0.8;	%	吉林.维昌/220kV.#1主变-高等值负荷										
	160	1	31.605818	5.153614	0	0	6	0	0	230	1	1.2	0.8;	%	吉林.榆树/220kV.220kV主母线										
	161	1	50.439953	1.479398	0	0	6	0	0	230	1	1.2	0.8;	%	吉林.五棵树/220kV.220kV南母线										
	162	2	0	0	0	0	6	0	0	5	1	1.2	0.8;	%	吉林.红石水厂/6.3kV.6.3kVI母线										
	163	2	0	0	0	0	6	0	0	5	1	1.2	0.8;	%	吉林.红石水厂/6.3kV.6.3kVII母线										
	164	1	0	0	0	0	6	0	0	230	1	1.2	0.8;	%	吉林.红石水厂/220kV.220kV母线4										
	165	1	0	0	0	0	6	0	0	1	1	1.2	0.8;	%	吉林.红石水厂_mid_1										
	166	1	0	0	0	0	6	0	0	1	1	1.2	0.8;	%	吉林.红石水厂_mid_2										
	167	1	9.845144	0.79249	0	0	6	0	0	66	1	1.2	0.8;	%	吉林.红石水厂/66kV.#1变中压侧等值负荷										
	168	1	9.844743	0.792643	0	0	6	0	0	66	1	1.2	0.8;	%	吉林.红石水厂/66kV.#2变中压侧等值负荷										
	169	1	61.744881	3.548898	0	0	6	0	0	230	1	1.2	0.8;	%	吉林.长流/220kV.220kV南母线										
	170	1	49.86746111	18.648952	0	0	6	0	0	230	1	1.2	0.8;	%	吉林.长岭/220kV.220kV西母线										
	171	1	26.755024	13.317771	0	0	6	0	0	230	1	1.2	0.8;	%	吉林.高集岗/220kV.220kV南母线										
	172	1	35.894932	14.537178	0	0	6	0	0	230	1	1.2	0.8;	%	吉林.国庆/220kV.220kVI主母线										
	173	1	44.389198	15.371816	0	0	6	0	0	230	1	1.2	0.8;	%	吉林.苗胜/220kV.220kV西母线										
	174	1	69.597687	10.377398	0	0	6	0	0	230	1	1.2	0.8;	%	吉林.四平/220kV.220kV西母线										
	175	1	-491.6774816	0	0	-2.8	6	0	0	525	1	1.2	0.8;	%	吉林.合心/500kV.500KVI母线										
	176	1	0	0	0	-1.8	6	0	0	35	1	1.2	0.8;	%	吉林.合心/35kV.35KV联络母线										
	177	1	0	0	0	0	6	0	0	230	1	1.2	0.8;	%	吉林.合心/220kV.220KVII母线										
	178	1	0	0	0	-2.5	6	0	0	66	1	1.2	0.8;	%	吉林.合心/66kV.66KV母线										
	179	1	0	0	0	0	6	0	0	1	1	1.2	0.8;	%	吉林.合心_mid_1										
	180	1	0	0	0	0	6	0	0	1	1	1.2	0.8;	%	吉林.合心_mid_2										
	181	1	47.791992	8.203307	0	0	6	0	0	230	1	1.2	0.8;	%	吉林.农安/220kV.220kV_主母线										
	182	1	7.318604	48.114861	0	0	6	0	0	230	1	1.2	0.8;	%	吉林.前郭/220kV.220kV主母线										
	183	1	91.178085	16.74053	0	0	6	0	0	230	1	1.2	0.8;	%	吉林.德惠/220kV.220kV南母线										
	184	1	66.002777	2.688096	0	0	6	0	0	230	1	1.2	0.8;	%	吉林.双阳/220kV.220kV主母线										
	185	1	87.57505	27.892382	0	0	6	0	0	230	1	1.2	0.8;	%	吉林.扶余/220kV.220kV西母线										
	186	1	68.634239	3.417938	0	0	6	0	0	230	1	1.2	0.8;	%	吉林.九台/220kV.220kV西母线										
	187	1	44.148178	16.009022	0	0	6	0	0	230	1	1.2	0.8;	%	吉林.伊通/220kV.220kV主母线										
	188	1	163.907547	43.462292	0	0	6	0	0	230	1	1.2	0.8;	%	吉林.北郊/220kV.220kV北母线										
	189	1	206.487885	48.904945	0	0	6	0	0	230	1	1.2	0.8;	%	吉林.西郊/220kV.220kV西母线										
	190	1	147.186096	25.035456	0	0	6	0	0	230	1	1.2	0.8;	%	吉林.公主岭/220kV.220kV北母线										
	191	1	27.804613	-9.1022	0	0	6	0	0	230	1	1.2	0.8;	%	吉林.平泉/220kV.#2主变-高等值负荷										
	192	1	27.905294	-4.030809	0	0	6	0	0	230	1	1.2	0.8;	%	吉林.平泉/220kV.#1主变-高等值负荷										
	193	1	133.872513	19.901463	0	0	6	0	0	230	1	1.2	0.8;	%	吉林.巨丰/220kV.220kV南母线										
	194	1	55.108253	16.349131	0	0	6	0	0	230	1	1.2	0.8;	%	吉林.延东/220kV.220kV北母线										
	195	1	69.940392	22.295887	0	0	6	0	0	230	1	1.2	0.8;	%	吉林.延西/220kV.220kV北母线										
	196	1	50.242626	27.13637	0	0	6	0	0	230	1	1.2	0.8;	%	吉林.图们/220kV.220kV南母线										
	197	1	40.747078	11.415779	0	0	6	0	0	230	1	1.2	0.8;	%	吉林.汪清/220kV.220kVII母线										
	198	1	36.55575331	13.653022	0	0	6	0	0	230	1	1.2	0.8;	%	吉林.双辽/220kV.220kVI段母线										
	199	1	49.244572	19.322866	0	0	6	0	0	230	1	1.2	0.8;	%	吉林.致富/220kV.220kV南母线										
	200	2	0	0	0	0	6	0	0	10.5	1	1.2	0.8;	%	吉林.两江电站厂/10.5kV.10KVI段母线										
...
];																									
																									
%% generator data																									
%	bus	Pg	Qg	Qmax	Qmin	Vg	mBase	status	Pmax	Pmin	Pc1	Pc2	Qc1min	Qc1max	Qc2min	Qc2max	ramp_agc	ramp_10	ramp_30	ramp_q	apf	min_dn	min_up		
mpc.gen = [																									
	8	118.222	19.56579	100	0	0	100	1	209.999985	50	0	0	0	0	0	0	2.1	0	0	0	1	4	4	%	吉林.长山厂/15.75kV.#9发电机
	10	319.585999	84.105072	200	0	0	100	1	660	0	0	0	0	0	0	1	6.6	0	0	0	1	4	4	%	吉林.九台厂/20kV.#1发电机
	11	321.318573	24.930576	200	0	0	100	1	700	0	0	0	0	0	0	2	7	0	0	0	1	4	4	%	吉林.九台厂/20kV.#2发电机
	34	0	0	58.819996	0	0	100	1	110	25	0	0	0	0	0	3	1.1	0	0	0	1	4	4	%	吉林.二道江厂/10.5kV.#7发电机
	35	0	0	58.819996	0	0	100	1	110	25	0	0	0	0	0	4	1.1	0	0	0	1	4	4	%	吉林.二道江厂/10.5kV.#8发电机
	36	118.255997	1.7248	100	0	0	100	1	209.999985	50	0	0	0	0	0	5	2.1	0	0	0	1	4	4	%	吉林.二道江厂/15.75kV.#1发电机
	37	103.255997	-6.217601	100	0	0	100	1	209.999985	50	0	0	0	0	0	6	2.1	0	0	0	1	4	4	%	吉林.二道江厂/15.75kV.#2发电机
	45	164.619003	3.771365	100	0	0	100	1	350	75	0	0	0	0	0	7	3.5	0	0	0	1	4	4	%	吉林.珲春厂/24kV.#3发电机
	46	167.619003	4.778801	100	0	0	100	1	350	75	0	0	0	0	0	8	3.5	0	0	0	1	4	4	%	吉林.珲春厂/24kV.#4发电机
	49	0	0	73.529999	0	0	100	1	355	31.25	0	0	0	0	0	9	7.1	0	0	0	1	4	4	%	吉林.吉林热电厂/13.8kV
	49	0	0	73.529999	0	0	100	1	355	31.25	0	0	0	0	0	9	7.1	0	0	0	1	4	4	%	吉林.吉林热电厂/13.8kV
	58	116.064011	-12.833254	117.649994	0	0	100	1	220	50	0	0	0	0	0	10	2.2	0	0	0	1	4	4	%	吉林.浑江厂/15.75kV.#5发电机
	59	0	0	117.649994	0	0	100	1	209.999985	50	0	0	0	0	0	11	2.1	0	0	0	1	4	4	%	吉林.浑江厂/15.75kV.#6发电机
	63	220.397003	22.041277	176.470001	0	0	100	1	330	75	0	0	0	0	0	12	3.3	0	0	0	1	4	4	%	吉林.双辽厂/20kV.#1发电机
	64	0	0	176.470001	0	0	100	1	330	75	0	0	0	0	0	13	3.3	0	0	0	1	4	4	%	吉林.双辽厂/20kV.#2发电机
	62	152.158981	57.476604	176.470001	0	0	100	1	330	75	0	0	0	0	0	14	3.3	0	0	0	1	4	4	%	吉林.双辽厂/20kV.#3发电机
	65	0	0	176.470001	0	0	100	1	330	75	0	0	0	0	0	15	3.3	0	0	0	1	4	4	%	吉林.双辽厂/20kV.#4发电机
	70	0	0	117.639992	0	0	100	1	640	50	0	0	0	0	0	16	12.8	0	0	0	1	4	4	%	吉林.长春二热厂/15.75kV
	70	0	0	117.639992	0	0	100	1	640	50	0	0	0	0	0	16	12.8	0	0	0	1	4	4	%	吉林.长春二热厂/15.75kV
	80	0	0	37.5	0	0	100	1	570	15.000001	0	0	0	0	0	17	5.7	0	0	0	1	4	4	%	吉林.四平热电厂/10.5kV
	88	0	0	171.419998	0	0	100	1	320	75	0	0	0	0	0	18	3.2	0	0	0	1	4	4	%	吉林.白山水厂/18kV.#1发电机
	92	0.012141	-1.870602	171.419998	0	0	100	1	320	75	0	0	0	0	0	19	3.2	0	0	0	1	4	4	%	吉林.白山水厂/18kV.#5发电机
	90	0	0	171.419998	0	0	100	1	320	75	0	0	0	0	0	20	3.2	0	0	0	1	4	4	%	吉林.白山水厂/18kV.#3发电机
	91	0.00605	-0.714627	171.419998	0	0	100	1	320	75	0	0	0	0	0	21	3.2	0	0	0	1	4	4	%	吉林.白山水厂/18kV.#4发电机
	89	0	0	171.419998	0	0	100	1	320	75	0	0	0	0	0	22	3.2	0	0	0	1	4	4	%	吉林.白山水厂/18kV.#2发电机
	86	0	0	50	0	0	100	1	300	0	0	0	0	0	0	23	3	0	0	0	1	4	4	%	吉林.白山水厂/18kV.#6机抽蓄
	87	0	0	171.419998	0	0	100	1	320	75	0	0	0	0	0	24	3.2	0	0	0	1	4	4	%	吉林.白山水厂/18kV.#7机抽蓄
	102	163.748001	-0.697313	185.899994	0	0	100	1	660	82.5	0	0	0	0	0	25	6.6	0	0	0	1	4	4	%	吉林.白山热电厂/10.5kV.#1发电机
	102	163.748001	-0.697313	185.899994	0	0	100	1	660	82.5	0	0	0	0	0	25	6.6	0	0	0	1	4	4	%	吉林.白山热电厂/10.5kV.#1发电机
	107	0	0	185.899994	0	0	100	1	600	104.999993	0	0	0	0	0	26	6	0	0	0	1	4	4	%	吉林.长春三热厂/15.75kV.#2发电机
	116	0	0	20	0	0	100	1	80	0	0	0	0	0	0	27	0.8	0	0	0	1	4	4	%	吉林.小山电站厂/13.8kV.#1发电机
	117	0	0	20	0	0	100	1	80	0	0	0	0	0	0	28	0.8	0	0	0	1	4	4	%	吉林.小山电站厂/13.8kV.#2发电机
	128	66.072998	19.171236	84.709999	0	0	100	1	84.709999	0	0	0	0	0	0	29	0.8	0	0	0	1	4	4	%	吉林.丰满水厂/13.8kV.#1发电机
	129	0	0	100	0	0	100	1	100	0	0	0	0	0	0	30	1	0	0	0	1	4	4	%	吉林.丰满水厂/13.8kV.#2发电机
	131	73.072998	19.172146	94.400002	0	0	100	1	94.400002	0	0	0	0	0	0	31	0.9	0	0	0	1	4	4	%	吉林.丰满水厂/13.8kV.#4发电机
	132	6.075	26.172033	100	0	0	100	1	100	0	0	0	0	0	0	32	1	0	0	0	1	4	4	%	吉林.丰满水厂/13.8kV.#5发电机
	133	0	0	100	0	0	100	1	100	0	0	0	0	0	0	33	1	0	0	0	1	4	4	%	吉林.丰满水厂/13.8kV.#6发电机
	135	0	0	100	0	0	100	1	100	0	0	0	0	0	0	34	1	0	0	0	1	4	4	%	吉林.丰满水厂/13.8kV.#8发电机
	136	0	0	100	0	0	100	1	100	0	0	0	0	0	0	35	1	0	0	0	1	4	4	%	吉林.丰满水厂/13.8kV.#9发电机
	137	72.072998	21.172235	100	0	0	100	1	100	0	0	0	0	0	0	36	1	0	0	0	1	4	4	%	吉林.丰满水厂/13.8kV.#10发电机
	126	133.070999	28.144419	155.5	0	0	100	1	155.5	0	0	0	0	0	0	37	1.6	0	0	0	1	4	4	%	吉林.丰满水厂/13.8kV.#12发电机
	130	0	0	84.709999	0	0	100	1	84.709999	0	0	0	0	0	0	38	0.8	0	0	0	1	4	4	%	吉林.丰满水厂/13.8kV.#3发电机
	134	0	0	100	0	0	100	1	100	0	0	0	0	0	0	39	1	0	0	0	1	4	4	%	吉林.丰满水厂/13.8kV.#7发电机
	127	135.070984	29.145695	150.539993	0	0	100	1	150.539993	0	0	0	0	0	0	40	1.5	0	0	0	1	4	4	%	吉林.丰满水厂/13.8kV.#11发电机
	149	93.393997	18.092609	60.000004	0	0	100	1	145	35	0	0	0	0	0	41	1.5	0	0	0	1	4	4	%	吉林.松花江厂/10.5kV.#1发电机
	150	66.987	8.912811	60.000004	0	0	100	1	145	35	0	0	0	0	0	42	1.5	0	0	0	1	4	4	%	吉林.松花江厂/10.5kV.#2发电机
	151	0	0	100	0	0	100	1	315	0	0	0	0	0	0	43	3.2	0	0	0	1	4	4	%	吉林.松花江厂/20kV.#4机
	162	0	0	28.57	0	0	100	1	55	12.5	0	0	0	0	0	44	0.6	0	0	0	1	4	4	%	吉林.红石水厂/6.3kV.#1发电机
	162	0	0	28.57	0	0	100	1	55	12.5	0	0	0	0	0	45	0.6	0	0	0	1	4	4	%	吉林.红石水厂/6.3kV.#2发电机
	163	0	0	28.57	0	0	100	1	55	12.5	0	0	0	0	0	46	0.6	0	0	0	1	4	4	%	吉林.红石水厂/6.3kV.#3发电机
	163	0	0	28.57	0	0	100	1	55	12.5	0	0	0	0	0	47	0.6	0	0	0	1	4	4	%	吉林.红石水厂/6.3kV.#4发电机
	200	0	0	11.76	0	0	100	1	22	0	0	0	0	0	0	48	0.2	0	0	0	1	4	4	%	吉林.两江电站厂/10.5kV.#1发电机
	201	0	0	11.76	0	0	100	1	22	0	0	0	0	0	0	49	0.2	0	0	0	1	4	4	%	吉林.两江电站厂/10.5kV.#3发电机
	200	0	0	11.76	0	0	100	1	22	0	0	0	0	0	0	50	0.2	0	0	0	1	4	4	%	吉林.两江电站厂/10.5kV.#2发电机
	213	0	0	185	0	0	100	1	346	82.5	0	0	0	0	0	51	3.5	0	0	0	1	4	4	%	吉林.辽源发厂/24kV.#4发电机
	214	183.856018	8.420234	185	0	0	100	1	346	82.5	0	0	0	0	0	52	3.5	0	0	0	1	4	4	%	吉林.辽源发厂/24kV.#3发电机
	227	0	0	200	-100	0	100	1	700	0	0	0	0	0	0	53	7	0	0	0	1	4	4	%	吉林.江南热电厂/20kV.#1机
	235	104.023994	13.610538	100	-100	0	100	1	410	0	0	0	0	0	0	54	4.1	0	0	0	1	4	4	%	吉林.延吉热电厂/20kV.#1机
	243	0	0	100	0	0	100	1	300	0	0	0	0	0	0	55	6	0	0	0	1	4	4	%	吉林.长春四热厂/20kV.#1发电机
	243	0	0	100	0	0	100	1	300	0	0	0	0	0	0	55	6	0	0	0	1	4	4	%	吉林.长春四热厂/20kV.#1发电机
	258	0	0	200	0	0	100	1	700	0	0	0	0	0	0	56	7	0	0	0	1	4	4	%	吉林.白城发厂/20kV.#1发电机
	259	294.675964	71.360756	200	0	0	100	1	700	0	0	0	0	0	0	57	7	0	0	0	1	4	4	%	吉林.白城发厂/20kV.#2发电机
	263	0	0	20	0	0	100	1	140	0	0	0	0	0	0	58	1.4	0	0	0	1	4	4	%	吉林.双沟电站厂/13.8kV.#1发电机
	264	0	0	25	0	0	100	1	140	0	0	0	0	0	0	59	1.4	0	0	0	1	4	4	%	吉林.双沟电站厂/13.8kV.#2发电机
	267	98.380989	5.020193	99	0	0	100	1	98.379997	0	0	0	0	0	0	60	1	0	0	0	1	4	4	%	吉林.云峰水厂/10.5kV.501F
	268	99.879997	5.504086	20	0	0	100	1	99.879997	0	0	0	0	0	0	61	1	0	0	0	1	4	4	%	吉林.云峰水厂/10.5kV.503F
	270	173.817978	2.749815	200	0	0	100	1	315	0	0	0	0	0	0	62	3.2	0	0	0	1	4	4	%	吉林.华能煤矸石厂/20kV.#1机
	272	182.366989	89.995842	200	0	0	100	1	315	0	0	0	0	0	0	63	6.3	0	0	0	1	4	4	%	吉林.长春一热新厂/20kV.#1机
	272	182.366989	89.995842	200	0	0	100	1	315	0	0	0	0	0	0	63	6.3	0	0	0	1	4	4	%	吉林.长春一热新厂/20kV.#1机
	289	0	0	100	0	0	100	1	440	0	0	0	0	0	0	64	4.4	0	0	0	1	4	4	%	吉林.白城热电厂/18kV.#1机
	4	3.937938	-0.15429	3000	-3000	0	100	1	3.937938	0	0	0	0	0	0	65	999	0	0	0	1	4	4	%	吉林.镇赉风场/220kV.#1主变-高等值负荷_风电等值机组
	5	8.092286	-0.094109	3000	-3000	0	100	1	8.092286	0	0	0	0	0	0	66	999	0	0	0	1	4	4	%	吉林.黑鱼泡风场/220kV.#1主变-高等值负荷_风电等值机组
	5	8.092286	-0.094109	3000	-3000	0	100	1	8.092286	0	0	0	0	0	0	67	999	0	0	0	1	4	4	%	吉林.黑鱼泡风场/#2主变-高等值负荷_风电等值机组
	18	2.45713	-0.778093	3000	-3000	0	100	1	2.45713	0	0	0	0	0	0	68	999	0	0	0	1	4	4	%	吉林.鑫丰风场/220kV.#1主变-高等值负荷_风电等值机组
	18	2.45713	-0.778093	3000	-3000	0	100	1	2.45713	0	0	0	0	0	0	69	999	0	0	0	1	4	4	%	吉林.鑫丰风场/220kV.#2主变-高等值负荷_风电等值机组
	108	9.863702	-0.772492	3000	-3000	0	100	1	9.863702	0	0	0	0	0	0	70	999	0	0	0	1	4	4	%	吉林.乾安风场/220kV.#1主变-高等值负荷_风电等值机组
	210	23.615227	-1.35783	3000	-3000	0	100	1	23.615227	0	0	0	0	0	0	71	999	0	0	0	1	4	4	%	吉林.同发风场/220kV.#1主变-高等值负荷_风电等值机组
	210	23.615227	-1.35783	3000	-3000	0	100	1	23.615227	0	0	0	0	0	0	72	999	0	0	0	1	4	4	%	吉林.同发风场/220kV.#2主变-高等值负荷_风电等值机组
	210	23.615227	-1.35783	3000	-3000	0	100	1	23.615227	0	0	0	0	0	0	73	999	0	0	0	1	4	4	%	吉林.同发风场/220kV.#3主变-高等值负荷_风电等值机组
	210	23.615227	-1.35783	3000	-3000	0	100	1	23.615227	0	0	0	0	0	0	74	999	0	0	0	1	4	4	%	吉林.同发风场/220kV.#4主变-高等值负荷_风电等值机组
	210	23.615227	-1.35783	3000	-3000	0	100	1	23.615227	0	0	0	0	0	0	75	999	0	0	0	1	4	4	%	吉林.同发风场/220kV.#5主变-高等值负荷_风电等值机组
	210	23.615227	-1.35783	3000	-3000	0	100	1	23.615227	0	0	0	0	0	0	76	999	0	0	0	1	4	4	%	吉林.同发风场/220kV.#6主变-高等值负荷_风电等值机组
	210	23.615227	-1.35783	3000	-3000	0	100	1	23.615227	0	0	0	0	0	0	77	999	0	0	0	1	4	4	%	吉林.同发风场/220kV.#7主变-高等值负荷_风电等值机组
	215	4.454818	-1.82591	3000	-3000	0	100	1	4.454818	0	0	0	0	0	0	78	999	0	0	0	1	4	4	%	吉林.王子风场/220kV.#2主变-高等值负荷_风电等值机组
	216	59.294361	-9.789135	3000	-3000	0	100	1	59.294361	0	0	0	0	0	0	79	999	0	0	0	1	4	4	%	吉林.大岗风电/220kV.#1主变-高等值负荷_风电等值机组
	216	59.294361	-9.789135	3000	-3000	0	100	1	59.294361	0	0	0	0	0	0	80	999	0	0	0	1	4	4	%	吉林.大岗风电/220kV.#2主变-高等值负荷_风电等值机组
	225	16.195465	-13.950893	3000	-3000	0	100	1	16.195465	0	0	0	0	0	0	81	999	0	0	0	1	4	4	%	吉林.双龙风场/220kV.#1主变-高等值负荷_风电等值机组
	236	29.634512	-4.818184	3000	-3000	0	100	1	29.634512	0	0	0	0	0	0	82	999	0	0	0	1	4	4	%	吉林.马力风电/220kV.#1主变-高等值负荷_风电等值机组
	236	29.634512	-4.818184	3000	-3000	0	100	1	29.634512	0	0	0	0	0	0	83	999	0	0	0	1	4	4	%	吉林.马力风电/220kV.#2主变-高等值负荷_风电等值机组
	246	9.651928	-1.227517	3000	-3000	0	100	1	9.651928	0	0	0	0	0	0	84	999	0	0	0	1	4	4	%	吉林.北正风场/220kV.#1主变-高等值负荷_风电等值机组
	253	26.746059	0.096535	3000	-3000	0	100	1	26.746059	0	0	0	0	0	0	85	999	0	0	0	1	4	4	%	吉林.向阳风场/220kV.#4主变-高等值负荷_风电等值机组
	253	26.746059	0.096535	3000	-3000	0	100	1	26.746059	0	0	0	0	0	0	86	999	0	0	0	1	4	4	%	吉林.向阳风场/220kV.#2主变-高等值负荷_风电等值机组
	253	26.746059	0.096535	3000	-3000	0	100	1	26.746059	0	0	0	0	0	0	87	999	0	0	0	1	4	4	%	吉林.向阳风场/220kV.#1主变-高等值负荷_风电等值机组
	253	26.746059	0.096535	3000	-3000	0	100	1	26.746059	0	0	0	0	0	0	88	999	0	0	0	1	4	4	%	吉林.向阳风场/220kV.#3主变-高等值负荷_风电等值机组
	265	12.706656	0.737523	3000	-3000	0	100	1	12.706656	0	0	0	0	0	0	89	999	0	0	0	1	4	4	%	吉林.风水山风场/220kV.#1主变-高等值负荷_风电等值机组
	275	1.76833	-3.107969	3000	-3000	0	100	1	1.76833	0	0	0	0	0	0	90	999	0	0	0	1	4	4	%	吉林.宝山风场/220kV.#1主变-高等值负荷_风电等值机组
	276	9.657719	-9.746575	3000	-3000	0	100	1	9.657719	0	0	0	0	0	0	91	999	0	0	0	1	4	4	%	吉林.新立风电/220kV.#1主变高等值负荷_风电等值机组
	277	4.085245	0.083481	3000	-3000	0	100	1	4.085245	0	0	0	0	0	0	92	999	0	0	0	1	4	4	%	吉林.水字风场/220kV.#1主变-高等值负荷_风电等值机组
	277	4.085245	0.083481	3000	-3000	0	100	1	4.085245	0	0	0	0	0	0	93	999	0	0	0	1	4	4	%	吉林.风安线水字分线_等值负荷_风电等值机组
	278	39.711086	-3.796009	3000	-3000	0	100	1	39.711086	0	0	0	0	0	0	94	999	0	0	0	1	4	4	%	吉林.华能洮北风电/220kV.三期#1主变-高等值负荷_风电等值机组
	279	4.124736	-1.715553	3000	-3000	0	100	1	4.124736	0	0	0	0	0	0	95	999	0	0	0	1	4	4	%	吉林.那木斯风电场/220kV.#1主变-高等值负荷_风电等值机组
	280	13.26354	2.977931	3000	-3000	0	100	1	13.26354	0	0	0	0	0	0	96	999	0	0	0	1	4	4	%	吉林.来福风场/220kV.#1主变-高等值负荷_风电等值机组
	280	13.26354	2.977931	3000	-3000	0	100	1	13.26354	0	0	0	0	0	0	97	999	0	0	0	1	4	4	%	吉林.来福风场/#2主变-高等值负荷_风电等值机组
	316	3.814511	0.82195	3000	-3000	0	100	1	3.814511	0	0	0	0	0	0	98	999	0	0	0	1	4	4	%	吉林.海坨风场/#1主变-高等值负荷_风电等值机组
];																									
																									
%% branch data																									
%	fbus	tbus	r	x	b	rateA	rateB	rateC	ratio	angle	status	angmin	angmax												
mpc.branch = [																									
	2	125	0.0185	0.0894	-0.08495	10000	15000	20000	0	0	1	-360	360;	%	吉林.松明线										
	114	262	0.003703	0.018101	-0.022416	10000	15000	20000	0	0	1	-360	360;	%	吉林.双江线										
	153	164	0.006886	0.033882	-0.038793	10000	15000	20000	0	0	1	-360	360;	%	吉林.红桦线										
	140	125	0.0037	0.019	-0.02	10000	15000	20000	0	0	1	-360	360;	%	吉林.松东甲线										
	140	125	0.0045	0.018	-0.0213	10000	15000	20000	0	0	1	-360	360;	%	吉林.松东乙线										
	125	146	0.002843	0.012	-0.01	10000	15000	20000	0	0	1	-360	360;	%	吉林.松南甲线										
	125	146	0.002661	0.010643	-0.01	10000	15000	20000	0	0	1	-360	360;	%	吉林.松南乙线										
	152	125	0.0179	0.0942	-0.09215	10000	15000	20000	0	0	1	-360	360;	%	吉林.松磐线										
	156	125	0.0073	0.040257	-0.041	10000	15000	20000	0	0	1	-360	360;	%	吉林.松蛟线										
	171	82	0.014318	0.072027	-0.108237	10000	15000	20000	0	0	1	-360	360;	%	吉林.白高线										
	266	121	0.015029	0.060114	-0.036597	10000	15000	20000	0	0	1	-360	360;	%	吉林.云水线										
	20	83	0.020111	0.105581	-0.126536	10000	15000	20000	0	0	1	-360	360;	%	吉林.白东南线										
	20	82	0.02022	0.106237	-0.126536	10000	15000	20000	0	0	1	-360	360;	%	吉林.白东北线										
	123	84	0.0191	0.0859	-0.1509	10000	15000	20000	0	0	1	-360	360;	%	吉林.白梅甲线										
	123	85	0.0186	0.0861	-0.1641	10000	15000	20000	0	0	1	-360	360;	%	吉林.白梅乙线										
	141	125	0.020196	0.080785	-0.061278	10000	15000	20000	0	0	1	-360	360;	%	吉林.松舒线										
	141	319	0.000179	0.0652	-0.000441	10000	15000	20000	0	0	1	-360	360;	%	吉林.舒五线										
	60	284	0.0121	0.0918	-0.1315	10000	15000	20000	0	0	1	-360	360;	%	吉林.双金甲线										
	216	206	0.014646	0.059895	-0.035957	10000	15000	20000	0	0	1	-360	360;	%	吉林.岗大线										
	28	175	0.0009	0.011196	-0.575001	10000	15000	20000	0	0	1	-360	360;	%	吉林.梨合2号线										
	19	142	0.00128	0.01691	-0.825	10000	15000	20000	0	0	1	-360	360;	%	吉林.包丰线										
	152	1	0.004153	0.024483	-0.016964	10000	15000	20000	0	0	1	-360	360;	%	吉林.明磐线										
	199	27	0.008984	0.043719	-0.03431	10000	15000	20000	0	0	1	-360	360;	%	吉林.梨富甲线										
	217	206	0.006	0.035	-0.0325	10000	15000	20000	0	0	1	-360	360;	%	吉林.松大线										
	3	193	0.001639	0.013524	-0.011894	10000	15000	20000	0	0	1	-360	360;	%	吉林.立巨甲线										
	3	193	0.001639	0.015808	-0.011894	10000	15000	20000	0	0	1	-360	360;	%	吉林.立巨乙线										
	217	6	0.004509	0.018034	-0.00915	10000	15000	20000	0	0	1	-360	360;	%	吉林.热松甲线										
	218	175	0.0018	0.015	-0.9	10000	15000	20000	0	0	1	-360	360;	%	吉林.合松#2线										
	207	12	0.00025	0.001	-0.012	10000	15000	20000	0	0	1	-360	360;	%	吉林.马镇线										
	114	224	0.018362	0.106784	-0.077769	10000	15000	20000	0	0	1	-360	360;	%	吉林.松长甲线										
	236	229	0.0025	0.01	-0.055	10000	15000	20000	0	0	1	-360	360;	%	吉林.马镇线马力分线										
	4	229	0.003843	0.015373	-0.012042	10000	15000	20000	0	0	1	-360	360;	%	吉林.马镇线镇赉风场分线										
	5	12	0.002751	0.011005	-0.00862	10000	15000	20000	0	0	1	-360	360;	%	吉林.马镇线黑鱼泡分线										
	114	120	0.008601	0.043719	-0.033184	10000	15000	20000	0	0	1	-360	360;	%	吉林.江靖线										
	205	241	0.0001	0.05704	-0.045746	10000	15000	20000	0	0	1	-360	360;	%	吉林.金集甲线										
	225	13	0.000475	0.0019	-0.00165	10000	15000	20000	0	0	1	-360	360;	%	吉林.王岭线双龙分线										
	238	9	0.000182	0.003613	-0.2	10000	15000	20000	0	0	1	-360	360;	%	吉林.九嘉#1线										
	238	9	0.0002	0.0036	-0.2	10000	15000	20000	0	0	1	-360	360;	%	吉林.九嘉#2线										
	238	175	0.000243	0.0038	-0.158325	10000	15000	20000	0	0	1	-360	360;	%	吉林.嘉合#1线										
	177	242	0.002	0.011039	-0.013724	10000	15000	20000	0	0	1	-360	360;	%	吉林.热合甲线										
	177	242	0.00138	0.011083	-0.013724	10000	15000	20000	0	0	1	-360	360;	%	吉林.热合乙线										
	238	142	0.0013	0.00847	-0.435	10000	15000	20000	0	0	1	-360	360;	%	吉林.嘉包线										
	61	28	0.0009	0.0079	-0.395	10000	15000	20000	0	0	1	-360	360;	%	吉林.双梨乙线										
	94	19	0.00315	0.0126	-0.75	10000	15000	20000	0	0	1	-360	360;	%	吉林.通丰1号线										
	94	19	0.00315	0.0126	-0.75	10000	15000	20000	0	0	1	-360	360;	%	吉林.通丰2号线										
	93	121	0.001967	0.008072	-0.005215	10000	15000	20000	0	0	1	-360	360;	%	吉林.通水甲线										
	93	121	0.001858	0.009538	-0.006954	10000	15000	20000	0	0	1	-360	360;	%	吉林.通水乙线										
	93	205	0.0001	0.035085	-0.019579	10000	15000	20000	0	0	1	-360	360;	%	吉林.通金线										
	93	122	0.00306	0.014646	-0.036781	10000	15000	20000	0	0	1	-360	360;	%	吉林.通桃甲线										
	93	122	0.00306	0.014646	-0.036781	10000	15000	20000	0	0	1	-360	360;	%	吉林.通桃乙线										
	104	105	0.001482	0.00593	-0.01	10000	15000	20000	0	0	1	-360	360;	%	吉林.热三甲线										
	104	105	0.001501	0.006003	-0.01	10000	15000	20000	0	0	1	-360	360;	%	吉林.热三乙线										
	104	190	0.01075	0.043	-0.029	10000	15000	20000	0	0	1	-360	360;	%	吉林.三公线										
	93	100	0.003716	0.028046	-0.036597	10000	15000	20000	0	0	1	-360	360;	%	吉林.白通甲线										
	93	100	0.003716	0.028046	-0.036597	10000	15000	20000	0	0	1	-360	360;	%	吉林.白通乙线										
	195	99	0.011586	0.059676	-0.041172	10000	15000	20000	0	0	1	-360	360;	%	吉林.西和甲线										
	93	119	0.003825	0.018253	-0.022508	10000	15000	20000	0	0	1	-360	360;	%	吉林.通白1号线										
	93	119	0.003716	0.018143	-0.022325	10000	15000	20000	0	0	1	-360	360;	%	吉林.通白2号线										
	52	119	0.004809	0.021422	-0.01711	10000	15000	20000	0	0	1	-360	360;	%	吉林.浑白线										
	122	31	0.000198	0.000946	-0.015096	10000	15000	20000	0	0	1	-360	360;	%	吉林.二桃甲线										
	122	31	0.000198	0.000955	-0.015096	10000	15000	20000	0	0	1	-360	360;	%	吉林.二桃乙线										
	255	177	0.002132	0.015435	-0.021501	10000	15000	20000	0	0	1	-360	360;	%	吉林.合正甲线										
	255	177	0.002093	0.015435	-0.021501	10000	15000	20000	0	0	1	-360	360;	%	吉林.合正乙线										
	27	193	0.004153	0.019674	-0.014639	10000	15000	20000	0	0	1	-360	360;	%	吉林.梨巨甲线										
	27	193	0.004153	0.019674	-0.014639	10000	15000	20000	0	0	1	-360	360;	%	吉林.梨巨乙线										
	104	158	0.003	0.012	-0.0105	10000	15000	20000	0	0	1	-360	360;	%	吉林.三长乙线										
	198	27	0.015649	0.076508	-0.054896	10000	15000	20000	0	0	1	-360	360;	%	吉林.梨双线										
	104	158	0.003	0.012	-0.0105	10000	15000	20000	0	0	1	-360	360;	%	吉林.三长甲线										
	170	246	0.013148	0.052594	-0.0388	10000	15000	20000	0	0	1	-360	360;	%	吉林.北岭线										
	218	175	0.0018	0.016	-0.925	10000	15000	20000	0	0	1	-360	360;	%	吉林.合松#1线										
	93	245	0.003007	0.01664	-0.010199	10000	15000	20000	0	0	1	-360	360;	%	吉林.六通线										
	211	250	0.003175	0.012699	-0.027448	10000	15000	20000	0	0	1	-360	360;	%	吉林.甜洮甲线										
	211	250	0.003184	0.012736	-0.027448	10000	15000	20000	0	0	1	-360	360;	%	吉林.甜洮乙线										
	14	211	0.0003	0.0019	-0.00285	10000	15000	20000	0	0	1	-360	360;	%	吉林.新洮线										
	247	218	0.000185	0.015572	-0.9305	10000	15000	20000	0	0	1	-360	360;	%	吉林.甜松1号线										
	247	218	0.0002	0.0156	-0.9305	10000	15000	20000	0	0	1	-360	360;	%	吉林.甜松2号线										
	153	152	0.008744	0.034975	-0.045838	10000	15000	20000	0	0	1	-360	360;	%	吉林.磐桦乙线										
	247	257	1.90E-05	0.000391	-0.085	10000	15000	20000	0	0	1	-360	360;	%	吉林.白甜2号线										
	250	256	0.001461	0.005846	-0.009172	10000	15000	20000	0	0	1	-360	360;	%	吉林.甜乔甲线										
	250	256	0.001461	0.005846	-0.009195	10000	15000	20000	0	0	1	-360	360;	%	吉林.甜乔乙线										
	6	254	0.0017	0.007718	-0.005764	10000	15000	20000	0	0	1	-360	360;	%	吉林.热山线										
	217	254	0.001913	0.008681	-0.006496	10000	15000	20000	0	0	1	-360	360;	%	吉林.山松线										
	111	66	0.001375	0.0055	-0.0055	10000	15000	20000	0	0	1	-360	360;	%	吉林.二东甲线										
	112	66	0.001375	0.0055	-0.0055	10000	15000	20000	0	0	1	-360	360;	%	吉林.二东乙线										
	114	113	0.012569	0.065579	-0.076489	10000	15000	20000	0	0	1	-360	360;	%	吉林.三江线										
	115	114	0.000984	0.0047	-0.00549	10000	15000	20000	0	0	1	-360	360;	%	吉林.小江线										
	113	118	0.007869	0.047107	-0.037604	10000	15000	20000	0	0	1	-360	360;	%	吉林.三临线										
	113	119	0.003935	0.018253	-0.02571	10000	15000	20000	0	0	1	-360	360;	%	吉林.白三线										
	113	52	0.002405	0.013881	-0.009195	10000	15000	20000	0	0	1	-360	360;	%	吉林.浑三线										
	113	20	0.027734	0.110937	-0.071273	10000	15000	20000	0	0	1	-360	360;	%	吉林.东三线										
	113	120	0.006667	0.042407	-0.030833	10000	15000	20000	0	0	1	-360	360;	%	吉林.三靖线										
	138	146	0.003006	0.012023	-0.012809	10000	15000	20000	0	0	1	-360	360;	%	吉林.西南乙线										
	138	146	0.003703	0.015083	-0.00915	10000	15000	20000	0	0	1	-360	360;	%	吉林.西南甲线										
	139	138	0.0025	0.0118	-0.0156	10000	15000	20000	0	0	1	-360	360;	%	吉林.哈西乙线										
	139	138	0.00254	0.0128	-0.0104	10000	15000	20000	0	0	1	-360	360;	%	吉林.哈西甲线										
	140	154	0.002951	0.016395	-0.006496	10000	15000	20000	0	0	1	-360	360;	%	吉林.东肥线										
	140	47	0.0015	0.009	-0.0315	10000	15000	20000	0	0	1	-360	360;	%	吉林.热东甲线										
	140	47	0.0015	0.009	-0.0315	10000	15000	20000	0	0	1	-360	360;	%	吉林.热东乙线										
	140	141	0.0115	0.0588	-0.058	10000	15000	20000	0	0	1	-360	360;	%	吉林.东舒线										
	147	148	0.00098	0.00392	-0.006359	10000	15000	20000	0	0	1	-360	360;	%	吉林.新电甲线										
	147	155	0.001202	0.006121	-0.004208	10000	15000	20000	0	0	1	-360	360;	%	吉林.新肥线										
	147	144	0.001312	0.007542	-0.00915	10000	15000	20000	0	0	1	-360	360;	%	吉林.包新甲线										
	147	144	0.001312	0.007	-0.00915	10000	15000	20000	0	0	1	-360	360;	%	吉林.包新乙线										
	147	148	0.00098	0.00392	-0.006359	10000	15000	20000	0	0	1	-360	360;	%	吉林.新电乙线										
	153	152	0.008744	0.034975	-0.045838	10000	15000	20000	0	0	1	-360	360;	%	吉林.磐桦甲线										
	156	157	0.0228	0.0912	-0.0679	10000	15000	20000	0	0	1	-360	360;	%	吉林.蛟敦线										
	139	144	0.0018	0.0085	-0.0053	10000	15000	20000	0	0	1	-360	360;	%	吉林.包哈甲线										
	139	144	0.002125	0.0085	-0.00054	10000	15000	20000	0	0	1	-360	360;	%	吉林.包哈乙线										
	139	158	0.015375	0.0615	-0.095	10000	15000	20000	0	0	1	-360	360;	%	吉林.哈长线										
	159	140	0.0011	0.0067	-0.0048	10000	15000	20000	0	0	1	-360	360;	%	吉林.东维甲线										
	160	141	0.01695	0.0678	-0.05	10000	15000	20000	0	0	1	-360	360;	%	吉林.舒榆线										
	31	169	0.0001	0.007	-0.003751	10000	15000	20000	0	0	1	-360	360;	%	吉林.长江乙线										
	31	169	0.0001	0.007	-0.003751	10000	15000	20000	0	0	1	-360	360;	%	吉林.长江甲线										
	173	172	0.006995	0.038	-0.028637	10000	15000	20000	0	0	1	-360	360;	%	吉林.庆苗线										
	173	20	0.0015	0.006	-0.018298	10000	15000	20000	0	0	1	-360	360;	%	吉林.东苗线										
	123	212	0.0088	0.0432	-0.067	10000	15000	20000	0	0	1	-360	360;	%	吉林.梅源线										
	212	172	0.001858	0.011586	-0.006587	10000	15000	20000	0	0	1	-360	360;	%	吉林.庆源线										
	182	181	0.015848	0.067983	-0.049681	10000	15000	20000	0	0	1	-360	360;	%	吉林.前农线										
	177	183	0.012351	0.069165	-0.045746	10000	15000	20000	0	0	1	-360	360;	%	吉林.合德线										
	160	161	0.006625	0.0265	-0.03	10000	15000	20000	0	0	1	-360	360;	%	吉林.五榆线										
	161	183	0.01265	0.0506	-0.05	10000	15000	20000	0	0	1	-360	360;	%	吉林.德五线										
	186	183	0.005575	0.0223	-0.0323	10000	15000	20000	0	0	1	-360	360;	%	吉林.德九线										
	184	111	0.0087	0.0476	-0.0251	10000	15000	20000	0	0	1	-360	360;	%	吉林.东双线										
	187	184	0.009072	0.042407	-0.030376	10000	15000	20000	0	0	1	-360	360;	%	吉林.双伊线										
	177	188	0.000361	0.016613	-0.013175	10000	15000	20000	0	0	1	-360	360;	%	吉林.合北甲线										
	177	188	0.000361	0.016613	-0.013175	10000	15000	20000	0	0	1	-360	360;	%	吉林.合北乙线										
	189	177	0.002	0.025138	-0.018298	10000	15000	20000	0	0	1	-360	360;	%	吉林.合西甲线										
	189	177	0.002	0.025138	-0.018298	10000	15000	20000	0	0	1	-360	360;	%	吉林.合西乙线										
	189	104	0.004	0.017	-0.025	10000	15000	20000	0	0	1	-360	360;	%	吉林.西三甲线										
	189	104	0.004	0.017	-0.025	10000	15000	20000	0	0	1	-360	360;	%	吉林.西三乙线										
	111	188	0.0027	0.0127	-0.0117	10000	15000	20000	0	0	1	-360	360;	%	吉林.东北甲线										
	112	188	0.0027	0.0127	-0.0117	10000	15000	20000	0	0	1	-360	360;	%	吉林.东北乙线										
	67	158	0.001175	0.0047	-0.00275	10000	15000	20000	0	0	1	-360	360;	%	吉林.春二甲线										
	67	317	0.0012	0.0049	-0.02275	10000	15000	20000	0	0	1	-360	360;	%	吉林.春二乙线										
	104	158	0.00288	0.01152	-0.01	10000	15000	20000	0	0	1	-360	360;	%	吉林.春三线										
	192	158	0.001	0.005	-0.0235	10000	15000	20000	0	0	1	-360	360;	%	吉林.春平甲线										
	191	158	0.001	0.005	-0.0241	10000	15000	20000	0	0	1	-360	360;	%	吉林.春平乙线										
	189	170	0.025138	0.118041	-0.114367	10000	15000	20000	0	0	1	-360	360;	%	吉林.岭西线										
	195	194	0.00306	0.017378	-0.014135	10000	15000	20000	0	0	1	-360	360;	%	吉林.东西甲线										
	195	194	0.002842	0.016941	-0.011162	10000	15000	20000	0	0	1	-360	360;	%	吉林.东西乙线										
	194	196	0.00459	0.027215	-0.021593	10000	15000	20000	0	0	1	-360	360;	%	吉林.图延甲线										
	194	196	0.00459	0.027215	-0.021593	10000	15000	20000	0	0	1	-360	360;	%	吉林.图延乙线										
	194	306	0.02186	0.131157	-0.091494	10000	15000	20000	0	0	1	-360	360;	%	吉林.平延线										
	197	196	0.005137	0.031259	-0.023056	10000	15000	20000	0	0	1	-360	360;	%	吉林.图汪甲线										
	38	196	0.008525	0.0418	-0.038702	10000	15000	20000	0	0	1	-360	360;	%	吉林.珲图甲线										
	306	157	0.002	0.011	-0.0192	10000	15000	20000	0	0	1	-360	360;	%	吉林.平敦甲线										
	306	157	0.002	0.0113	-0.0192	10000	15000	20000	0	0	1	-360	360;	%	吉林.平敦乙线										
	174	3	0.0015	0.0075	-0.00805	10000	15000	20000	0	0	1	-360	360;	%	吉林.四立甲线										
	174	3	0.0011	0.0082	-0.00805	10000	15000	20000	0	0	1	-360	360;	%	吉林.四立乙线										
	187	190	0.0072	0.0359	-0.03	10000	15000	20000	0	0	1	-360	360;	%	吉林.公伊线										
	199	174	0.003825	0.018253	-0.013907	10000	15000	20000	0	0	1	-360	360;	%	吉林.富四线										
	76	174	0.001366	0.005465	-0.0042	10000	15000	20000	0	0	1	-360	360;	%	吉林.热四甲线										
	174	190	0.01093	0.045	-0.048	10000	15000	20000	0	0	1	-360	360;	%	吉林.公四线										
	202	157	0.0172	0.0902	-0.07	10000	15000	20000	0	0	1	-360	360;	%	吉林.江敦线										
	195	157	0.0151	0.0981	-0.098	10000	15000	20000	0	0	1	-360	360;	%	吉林.敦西甲线										
	195	157	0.0186	0.0974	-0.098	10000	15000	20000	0	0	1	-360	360;	%	吉林.敦西乙线										
	38	195	0.0094	0.059676	-0.064046	10000	15000	20000	0	0	1	-360	360;	%	吉林.珲西甲线										
	38	195	0.009072	0.059895	-0.064046	10000	15000	20000	0	0	1	-360	360;	%	吉林.珲西乙线										
	124	169	0.013662	0.054649	-0.034518	10000	15000	20000	0	0	1	-360	360;	%	吉林.长郑线										
	121	169	0.002623	0.016285	-0.009561	10000	15000	20000	0	0	1	-360	360;	%	吉林.长水线										
	205	169	0.002842	0.016613	-0.01043	10000	15000	20000	0	0	1	-360	360;	%	吉林.长金线										
	124	123	0.0065	0.04	-0.035	10000	15000	20000	0	0	1	-360	360;	%	吉林.郑梅线										
	207	206	0.020876	0.09	-0.070816	10000	15000	20000	0	0	1	-360	360;	%	吉林.大镇线										
	217	182	0.008853	0.054649	-0.02945	10000	15000	20000	0	0	1	-360	360;	%	吉林.松前线										
	206	6	0.005574	0.022297	-0.019579	10000	15000	20000	0	0	1	-360	360;	%	吉林.热大线										
	123	103	0.0076	0.041	-0.0325	10000	15000	20000	0	0	1	-360	360;	%	吉林.梅白#2线										
	6	208	0.01081	0.11356	-0.106132	10000	15000	20000	0	0	1	-360	360;	%	吉林.热白线										
	123	103	0.0076	0.041	-0.0325	10000	15000	20000	0	0	1	-360	360;	%	吉林.梅白#1线										
	211	210	0.008744	0.074541	-0.086233	10000	15000	20000	0	0	1	-360	360;	%	吉林.同洮线										
	185	6	0.0096	0.046	-0.03915	10000	15000	20000	0	0	1	-360	360;	%	吉林.热扶线										
	211	208	0.006121	0.039347	-0.011253	10000	15000	20000	0	0	1	-360	360;	%	吉林.白洮线										
	171	20	0.008197	0.032789	-0.080057	10000	15000	20000	0	0	1	-360	360;	%	吉林.高东线										
	307	142	0.0017	0.0152	-1.399996	10000	15000	20000	0	0	1	-360	360;	%	吉林.平包线										
	123	20	0.003279	0.0152	-0.015	10000	15000	20000	0	0	1	-360	360;	%	吉林.东梅甲线										
	123	20	0.003279	0.0152	-0.015	10000	15000	20000	0	0	1	-360	360;	%	吉林.东梅乙线										
	175	19	0.0013	0.0171	-0.8	10000	15000	20000	0	0	1	-360	360;	%	吉林.丰合线										
	215	13	0.00125	0.005	-0.0043	10000	15000	20000	0	0	1	-360	360;	%	吉林.王岭线王子分线										
	170	13	0.00125	0.005	-0.0043	10000	15000	20000	0	0	1	-360	360;	%	吉林.王岭线										
	198	15	0.012235	0.049995	-0.030193	10000	15000	20000	0	0	1	-360	360;	%	吉林.鑫双线										
	17	144	0.002942	0.011769	-0.013266	10000	15000	20000	0	0	1	-360	360;	%	吉林.包金甲线										
	17	144	0.002942	0.011769	-0.013266	10000	15000	20000	0	0	1	-360	360;	%	吉林.包金乙线										
	140	17	0.003075	0.012299	-0.0165	10000	15000	20000	0	0	1	-360	360;	%	吉林.金东甲线										
	140	17	0.003075	0.012299	-0.0165	10000	15000	20000	0	0	1	-360	360;	%	吉林.金东乙线										
	108	223	0.005869	0.024813	-0.015109	10000	15000	20000	0	0	1	-360	360;	%	吉林.才安线										
	233	194	0.000219	0.00134	-0.001143	10000	15000	20000	0	0	1	-360	360;	%	吉林.热延甲线										
	233	194	0.000196	0.00139	-0.001143	10000	15000	20000	0	0	1	-360	360;	%	吉林.热延乙线										
	217	183	0.032352	0.129408	-0.088574	10000	15000	20000	0	0	1	-360	360;	%	吉林.松德线										
	226	146	0.000271	0.002053	-0.00247	10000	15000	20000	0	0	1	-360	360;	%	吉林.江城甲线										
	226	146	0.000271	0.002053	-0.00247	10000	15000	20000	0	0	1	-360	360;	%	吉林.江城乙线										
	38	110	0.001817	0.007267	-0.006496	10000	15000	20000	0	0	1	-360	360;	%	吉林.珲靖线										
	196	110	0.010413	0.0482	-0.035225	10000	15000	20000	0	0	1	-360	360;	%	吉林.靖图线										
	16	223	0.0014	0.0064	-0.0085	10000	15000	20000	0	0	1	-360	360;	%	吉林.风安线										
	109	212	0.002769	0.013771	-0.010659	10000	15000	20000	0	0	1	-360	360;	%	吉林.永源线										
	109	174	0.010133	0.0535	-0.0965	10000	15000	20000	0	0	1	-360	360;	%	吉林.永四线										
	109	172	0.0037	0.0222	-0.0313	10000	15000	20000	0	0	1	-360	360;	%	吉林.庆永甲线										
	109	172	0.0037	0.0222	-0.0313	10000	15000	20000	0	0	1	-360	360;	%	吉林.庆永乙线										
	75	3	0.00067	0.005361	-0.006862	10000	15000	20000	0	0	1	-360	360;	%	吉林.热立甲线										
	75	3	0.00067	0.005361	-0.006862	10000	15000	20000	0	0	1	-360	360;	%	吉林.热立乙线										
	197	196	0.005137	0.031259	-0.023056	10000	15000	20000	0	0	1	-360	360;	%	吉林.图汪乙线										
	123	171	0.00612	0.045	-0.0524	10000	15000	20000	0	0	1	-360	360;	%	吉林.高梅线										
...
];																									
																									
%%-----  OPF Data  -----%%									
%% generator cost data									
%	1	startup	shutdown	n	x1	y1	...	xn	yn
%	2	startup	shutdown	n	c(n-1)	...	c0		
mpc.gencost = [									
	2	1200	0	3	0.004545	-0.909091	45.45910046	%	吉林.长山厂/15.75kV.#9发电机
	2	1210	0	3	0.000758	0	0	%	吉林.九台厂/20kV.#1发电机
	2	1220	0	3	0.000714	0	0	%	吉林.九台厂/20kV.#2发电机
	2	1230	0	3	0.008333	-0.833333	20.83415003	%	吉林.二道江厂/10.5kV.#7发电机
	2	1240	0	3	0.008333	-0.833333	20.83415003	%	吉林.二道江厂/10.5kV.#8发电机
	2	1250	0	3	0.004545	-0.909091	45.45910046	%	吉林.二道江厂/15.75kV.#1发电机
	2	1260	0	3	0.004545	-0.909091	45.45910046	%	吉林.二道江厂/15.75kV.#2发电机
	2	1270	0	3	0.0025	-0.75	56.25	%	吉林.珲春厂/24kV.#3发电机
	2	1280	0	3	0.0025	-0.75	56.25	%	吉林.珲春厂/24kV.#4发电机
	2	1290	0	3	0.006897	-0.862069	26.93790636	%	吉林.吉林热电厂/13.8kV.#9发电机
	2	1300	0	3	0.006897	-0.862069	26.93790636	%	吉林.吉林热电厂/13.8kV.#9发电机
	2	1310	0	3	0.004167	-0.833333	41.66330027	%	吉林.浑江厂/15.75kV.#5发电机
	2	1320	0	3	0.004545	-0.909091	45.45910046	%	吉林.浑江厂/15.75kV.#6发电机
	2	1330	0	3	0.002778	-0.833333	62.4949504	%	吉林.双辽厂/20kV.#1发电机
	2	1340	0	3	0.002778	-0.833333	62.4949504	%	吉林.双辽厂/20kV.#2发电机
	2	1350	0	3	0.002778	-0.833333	62.4949504	%	吉林.双辽厂/20kV.#3发电机
	2	1360	0	3	0.002778	-0.833333	62.4949504	%	吉林.双辽厂/20kV.#4发电机
	2	1370	0	3	0.004545	-0.909091	45.45910046	%	吉林.长春二热厂/15.75kV.#1发电机
	2	1380	0	3	0.004545	-0.909091	45.45910046	%	吉林.长春二热厂/15.75kV.#1发电机
	2	1390	0	3	0.0125	-0.75	11.25	%	吉林.四平热电厂/10.5kV.#1发电机
	2	1400	0	3	0.002941	-0.882353	66.18045024	%	吉林.白山水厂/18kV.#1发电机
	2	1410	0	3	0.002941	-0.882353	66.18045024	%	吉林.白山水厂/18kV.#5发电机
	2	1420	0	3	0.002941	-0.882353	66.18045024	%	吉林.白山水厂/18kV.#3发电机
	2	1430	0	3	0.002941	-0.882353	66.18045024	%	吉林.白山水厂/18kV.#4发电机
	2	1440	0	3	0.002941	-0.882353	66.18045024	%	吉林.白山水厂/18kV.#2发电机
	2	1450	0	3	0.001667	0	0	%	吉林.白山水厂/18kV.#6机抽蓄
	2	1460	0	3	0.002941	-0.882353	66.18045024	%	吉林.白山水厂/18kV.#7机抽蓄
	2	1470	0	3	0.00303	-1	82.50825083	%	吉林.白山热电厂/10.5kV.#1发电机
	2	1480	0	3	0.00303	-1	82.50825083	%	吉林.白山热电厂/10.5kV.#1发电机
	2	1490	0	3	0.005556	-2.333333	244.9803316	%	吉林.长春三热厂/15.75kV.#2发电机
	2	1500	0	3	0.00625	0	0	%	吉林.小山电站厂/13.8kV.#1发电机
	2	1510	0	3	0.00625	0	0	%	吉林.小山电站厂/13.8kV.#2发电机
	2	1520	0	3	0.005902	0	0	%	吉林.丰满水厂/13.8kV.#1发电机
	2	1530	0	3	0.005	0	0	%	吉林.丰满水厂/13.8kV.#2发电机
	2	1540	0	3	0.005297	0	0	%	吉林.丰满水厂/13.8kV.#4发电机
	2	1550	0	3	0.005	0	0	%	吉林.丰满水厂/13.8kV.#5发电机
	2	1560	0	3	0.005	0	0	%	吉林.丰满水厂/13.8kV.#6发电机
	2	1570	0	3	0.005	0	0	%	吉林.丰满水厂/13.8kV.#8发电机
	2	1580	0	3	0.005	0	0	%	吉林.丰满水厂/13.8kV.#9发电机
	2	1590	0	3	0.005	0	0	%	吉林.丰满水厂/13.8kV.#10发电机
	2	1600	0	3	0.003215	0	0	%	吉林.丰满水厂/13.8kV.#12发电机
	2	1610	0	3	0.005902	0	0	%	吉林.丰满水厂/13.8kV.#3发电机
	2	1620	0	3	0.005	0	0	%	吉林.丰满水厂/13.8kV.#7发电机
	2	1630	0	3	0.003321	0	0	%	吉林.丰满水厂/13.8kV.#11发电机
	2	1640	0	3	0.006667	-0.933333	32.66501008	%	吉林.松花江厂/10.5kV.#1发电机
	2	1650	0	3	0.006667	-0.933333	32.66501008	%	吉林.松花江厂/10.5kV.#2发电机
	2	1660	0	3	0.001587	0	0	%	吉林.松花江厂/20kV.#4机
	2	1670	0	3	0.016667	-0.833333	10.41645	%	吉林.红石水厂/6.3kV.#1发电机
	2	1680	0	3	0.016667	-0.833333	10.41645	%	吉林.红石水厂/6.3kV.#2发电机
	2	1690	0	3	0.016667	-0.833333	10.41645	%	吉林.红石水厂/6.3kV.#3发电机
	2	1700	0	3	0.016667	-0.833333	10.41645	%	吉林.红石水厂/6.3kV.#4发电机
	2	1710	0	3	0.022727	0	0	%	吉林.两江电站厂/10.5kV.#1发电机
	2	1720	0	3	0.022727	0	0	%	吉林.两江电站厂/10.5kV.#3发电机
	2	1730	0	3	0.022727	0	0	%	吉林.两江电站厂/10.5kV.#2发电机
	2	1740	0	3	0.002762	-0.911602	75.21888183	%	吉林.辽源发厂/24kV.#4发电机
	2	1750	0	3	0.002762	-0.911602	75.21888183	%	吉林.辽源发厂/24kV.#3发电机
	2	1760	0	3	0.001429	0	0	%	吉林.江南热电厂/20kV.#1机
	2	1770	0	3	0.002439	0	0	%	吉林.延吉热电厂/20kV.#1机
	2	1780	0	3	0.001667	0	0	%	吉林.长春四热厂/20kV.#1发电机
	2	1790	0	3	0.001667	0	0	%	吉林.长春四热厂/20kV.#1发电机
	2	1800	0	3	0.000714	0	0	%	吉林.白城发厂/20kV.#1发电机
	2	1810	0	3	0.000714	0	0	%	吉林.白城发厂/20kV.#2发电机
	2	1820	0	3	0.003571	0	0	%	吉林.双沟电站厂/13.8kV.#1发电机
	2	1830	0	3	0.003571	0	0	%	吉林.双沟电站厂/13.8kV.#2发电机
	2	1840	0	3	0.005082	0	0	%	吉林.云峰水厂/10.5kV.501F
	2	1850	0	3	0.005006	0	0	%	吉林.云峰水厂/10.5kV.503F
	2	1860	0	3	0.001587	0	0	%	吉林.华能煤矸石厂/20kV.#1机
	2	1870	0	3	0.001587	0	0	%	吉林.长春一热新厂/20kV.#1机
	2	1880	0	3	0.001587	0	0	%	吉林.长春一热新厂/20kV.#1机
	2	1890	0	3	0.002273	0	0	%	吉林.白城热电厂/18kV.#1机
	2	-1	0	3	0.12697	-1	1.968969048	%	吉林.镇赉风场/220kV.#1主变-高等值负荷_风电等值机组
	2	-1	0	3	0.061787	-1	4.046158577	%	吉林.黑鱼泡风场/220kV.#1主变-高等值负荷_风电等值机组
	2	-1	0	3	0.061787	-1	4.046158577	%	吉林.黑鱼泡风场/#2主变-高等值负荷_风电等值机组
	2	-1	0	3	0.203489	-1	1.228567638	%	吉林.鑫丰风场/220kV.#1主变-高等值负荷_风电等值机组
	2	-1	0	3	0.203489	-1	1.228567638	%	吉林.鑫丰风场/220kV.#2主变-高等值负荷_风电等值机组
	2	-1	0	3	0.050691	-1	4.931841944	%	吉林.乾安风场/220kV.#1主变-高等值负荷_风电等值机组
	2	-1	0	3	0.021173	-1	11.80749067	%	吉林.同发风场/220kV.#1主变-高等值负荷_风电等值机组
	2	-1	0	3	0.021173	-1	11.80749067	%	吉林.同发风场/220kV.#2主变-高等值负荷_风电等值机组
	2	-1	0	3	0.021173	-1	11.80749067	%	吉林.同发风场/220kV.#3主变-高等值负荷_风电等值机组
	2	-1	0	3	0.021173	-1	11.80749067	%	吉林.同发风场/220kV.#4主变-高等值负荷_风电等值机组
	2	-1	0	3	0.021173	-1	11.80749067	%	吉林.同发风场/220kV.#5主变-高等值负荷_风电等值机组
	2	-1	0	3	0.021173	-1	11.80749067	%	吉林.同发风场/220kV.#6主变-高等值负荷_风电等值机组
	2	-1	0	3	0.021173	-1	11.80749067	%	吉林.同发风场/220kV.#7主变-高等值负荷_风电等值机组
	2	-1	0	3	0.112238	-1	2.227409612	%	吉林.王子风场/220kV.#2主变-高等值负荷_风电等值机组
	2	-1	0	3	0.008433	-1	29.64544053	%	吉林.大岗风电/220kV.#1主变-高等值负荷_风电等值机组
	2	-1	0	3	0.008433	-1	29.64544053	%	吉林.大岗风电/220kV.#2主变-高等值负荷_风电等值机组
	2	-1	0	3	0.030873	-1	8.097690539	%	吉林.双龙风场/220kV.#1主变-高等值负荷_风电等值机组
	2	-1	0	3	0.016872	-1	14.81744903	%	吉林.马力风电/220kV.#1主变-高等值负荷_风电等值机组
	2	-1	0	3	0.016872	-1	14.81744903	%	吉林.马力风电/220kV.#2主变-高等值负荷_风电等值机组
	2	-1	0	3	0.051803	-1	4.82597533	%	吉林.北正风场/220kV.#1主变-高等值负荷_风电等值机组
	2	-1	0	3	0.018694	-1	13.37327485	%	吉林.向阳风场/220kV.#4主变-高等值负荷_风电等值机组
	2	-1	0	3	0.018694	-1	13.37327485	%	吉林.向阳风场/220kV.#2主变-高等值负荷_风电等值机组
	2	-1	0	3	0.018694	-1	13.37327485	%	吉林.向阳风场/220kV.#1主变-高等值负荷_风电等值机组
	2	-1	0	3	0.018694	-1	13.37327485	%	吉林.向阳风场/220kV.#3主变-高等值负荷_风电等值机组
	2	-1	0	3	0.039349	-1	6.353401611	%	吉林.风水山风场/220kV.#1主变-高等值负荷_风电等值机组
	2	-1	0	3	0.282753	-1	0.884163917	%	吉林.宝山风场/220kV.#1主变-高等值负荷_风电等值机组
	2	-1	0	3	0.051772	-1	4.828865024	%	吉林.新立风电/220kV.#1主变高等值负荷_风电等值机组
	2	-1	0	3	0.122392	-1	2.042617165	%	吉林.水字风场/220kV.#1主变-高等值负荷_风电等值机组
	2	-1	0	3	0.122392	-1	2.042617165	%	吉林.风安线水字分线_等值负荷_风电等值机组
	2	-1	0	3	0.012591	-1	19.85545231	%	吉林.华能洮北风电/220kV.三期#1主变-高等值负荷_风电等值机组
	2	-1	0	3	0.12122	-1	2.062365946	%	吉林.那木斯风电场/220kV.#1主变-高等值负荷_风电等值机组
	2	-1	0	3	0.037697	-1	6.631827466	%	吉林.来福风场/220kV.#1主变-高等值负荷_风电等值机组
	2	-1	0	3	0.037697	-1	6.631827466	%	吉林.来福风场/#2主变-高等值负荷_风电等值机组
	2	-1	0	3	0.131078	-1	1.907261325	%	吉林.海坨风场/#1主变-高等值负荷_风电等值机组
];									

%% area data																									
%	area	refbus    reserveUp    reserveDn																							
mpc.areas = [																									
	1	1	0	1200;																					
];																									
